
New Transformer.sub
! ENABLED
! NPhases = 3
! Nconds = 4
! Nterms = 2
! Yorder = 8
! NodeRef = "1 2 3 0 4 5 6 0 "
! Terminal Status: [C C C C C C C C ]
! Terminal Bus Ref: [1 1 1 1 2 2 2 2 ]

! YPrim (G matrix)
!   0.3877659832 | -0.1938829916 | -0.1938829916 |             0 |  -9.283352669 |   9.283352669 |             0 |             0 |
!  -0.1938829916 |  0.3877659832 | -0.1938829916 |             0 |             0 |  -9.283352669 |   9.283352669 |             0 |
!  -0.1938829916 | -0.1938829916 |  0.3877659832 |             0 |   9.283352669 |             0 |  -9.283352669 |             0 |
!              0 |             0 |             0 |             0 |             0 |             0 |             0 |             0 |
!   -9.283352669 |             0 |   9.283352669 |             0 |   444.4981793 |             0 |             0 |  -444.4981793 |
!    9.283352669 |  -9.283352669 |             0 |             0 |             0 |   444.4981793 |             0 |  -444.4981793 |
!              0 |   9.283352669 |  -9.283352669 |             0 |             0 |             0 |   444.4981793 |  -444.4981793 |
!              0 |             0 |             0 |             0 |  -444.4981793 |  -444.4981793 |  -444.4981793 |   1333.494538 |
! YPrim (B Matrix) = 
!   -3.102127866 |   1.551063933 |   1.551063933 |             0 |   74.26682135 |  -74.26682135 |             0 |             0 |
!    1.551063933 |  -3.102127866 |   1.551063933 |             0 |             0 |   74.26682135 |  -74.26682135 |             0 |
!    1.551063933 |   1.551063933 |  -3.102127866 |             0 |  -74.26682135 |             0 |   74.26682135 |             0 |
!              0 |             0 |             0 |             0 |             0 |             0 |             0 |             0 |
!    74.26682135 |             0 |  -74.26682135 |             0 |  -3555.985435 |             0 |             0 |   3555.985435 |
!   -74.26682135 |   74.26682135 |             0 |             0 |             0 |  -3555.985435 |             0 |   3555.985435 |
!              0 |  -74.26682135 |   74.26682135 |             0 |             0 |             0 |  -3555.985435 |   3555.985435 |
!              0 |             0 |             0 |             0 |   3555.985435 |   3555.985435 |   3555.985435 |   -10667.9563 |
~ NumWindings=2
~ phases=3
~ Wdg=1 bus=sourcebus
~ conn=delta
~ kv=115.00
~ kVA=5000.0
~ tap=1.000
~ %R=0.00
~ RdcOhms=0.01124125
~ rneut=-1.000
~ xneut=0.000
~ Wdg=2 bus=650
~ conn=wye
~ kv=4.16
~ kVA=5000.0
~ tap=1.000
~ %R=0.00
~ RdcOhms=4.903253E-006
~ rneut=-1.000
~ xneut=0.000
~ XHL=0.008
~ XHT=35.000
~ XLT=30.000
~ X12=0.008
~ X13=35.000
~ X23=30.000
~ Xscmatrix= "0.01 "
~ NormMAxHkVA=5500
~ EmergMAxHkVA=7500
~ thermal=2.0
~ n=0.8
~ m=0.8
~ flrise=65
~ hsrise=15
~ %loadloss=0
~ %noloadloss=0
~ normhkVA=5500
~ emerghkVA=7500
~ sub=n
~ MaxTap=1.1
~ MinTap=0.9
~ NumTaps=32
~ subname=
~ %imag=0
~ ppm_antifloat=1
~ %Rs=[0.0005, 0.0005, ]
~ bank=
~ XfmrCode=
~ XRConst=NO
~ X12=0.008
~ X13=35
~ X23=30
~ LeadLag=Lag
~ WdgCurrents=12.35991, (-28.012), 591.8069, (151.99), 8.623802, (-144.89), 412.9178, (35.114), 12.43115, (93.55), 595.2182, (-86.45), 
~ Core=shell
~ RdcOhms=4.903253E-006
~ Seasons=1
~ Ratings=[1100,]
~ normamps=27.612
~ emergamps=37.653
~ faultrate=0.007
~ pctperm=100
~ repair=36
~ basefreq=60
~ enabled=true
~ like=

ZB:
6E-012 
4.8E-011 

ZB: (inverted)
2564102564.1026 
-20512820512.8205 

Y_OneVolt
2564102564.1026 
-2564102564.1026 2564102564.1026 
-20512820512.8205 
20512820512.8205 -20512820512.8205 

Y_Terminal
0.1939 
-0.1939 0.1939 
-9.2834 9.2834 444.4982 
9.2834 -9.2834 -444.4982 444.4982 
-1.5511 
1.5511 -1.5511 
74.2668 -74.2668 -3555.9854 
-74.2668 74.2668 3555.9854 -3555.9854 

TermRef= 1 3 5 8 2 1 6 8 3 2 7 8 
