New "LineCode.556mcm" nphases=1 baseFreq=50 rmatrix=[  0.41000000 ] xmatrix=[  0.96000000 ] cmatrix=[  7.98000000 ]
New "LineCode.4/0quad" nphases=3 baseFreq=50 rmatrix=[  0.11670000   0.04670000   0.04670000 |  0.04670000   0.11670000   0.04670000 |  0.04670000   0.04670000   0.11670000 ] xmatrix=[  0.06670000   0.02670000   0.02670000 |  0.02670000   0.06670000   0.02670000 |  0.02670000   0.02670000   0.06670000 ] cmatrix=[ 50.92958179   0.00000000   0.00000000 |  0.00000000  50.92958179   0.00000000 |  0.00000000   0.00000000  50.92958179 ]
