New "Load.l1" phases=1 bus1=loadbus.1.0 kV=7.96743371481684 kW=100 kvar=20 model=1
