New "LineCode.556mcm" nphases=3 baseFreq=50 rmatrix=[  0.10000000   0.04000000   0.04000000 |  0.04000000   0.10000000   0.04000000 |  0.04000000   0.04000000   0.10000000 ] xmatrix=[  0.05830000   0.02330000   0.02330000 |  0.02330000   0.05830000   0.02330000 |  0.02330000   0.02330000   0.05830000 ] cmatrix=[ 50.92958179   0.00000000   0.00000000 |  0.00000000  50.92958179   0.00000000 |  0.00000000   0.00000000  50.92958179 ]
New "LineCode.4/0quad" nphases=3 baseFreq=50 rmatrix=[  0.11670000   0.04670000   0.04670000 |  0.04670000   0.11670000   0.04670000 |  0.04670000   0.04670000   0.11670000 ] xmatrix=[  0.06670000   0.02670000   0.02670000 |  0.02670000   0.06670000   0.02670000 |  0.02670000   0.02670000   0.06670000 ] cmatrix=[ 50.92958179   0.00000000   0.00000000 |  0.00000000  50.92958179   0.00000000 |  0.00000000   0.00000000  50.92958179 ]
