New "Load.l1" phases=1 bus1=loadbus.1.0 kV=0.23094010767585 kW=6 kvar=3 model=1
New "Load.l2" phases=1 bus1=loadbus.2.0 kV=0.23094010767585 kW=6 kvar=3 model=1
New "Load.l3" phases=1 bus1=loadbus.3.0 kV=0.23094010767585 kW=6 kvar=3 model=1
