
New Transformer.subxfmr
! ENABLED
! NPhases = 3
! Nconds = 4
! Nterms = 2
! Yorder = 8
! NodeRef = "1 2 3 0 4 5 6 0 "
! Terminal Status: [C C C C C C C C ]
! Terminal Bus Ref: [1 1 1 1 2 2 2 2 ]

! YPrim (G matrix)
!  0.001838006854 | -0.0009190034271 | -0.0009190034271 |             0 | -0.005871771362 | 0.005871771362 |             0 |             0 |
!  -0.0009190034271 | 0.001838006854 | -0.0009190034271 |             0 |             0 | -0.005871771362 | 0.005871771362 |             0 |
!  -0.0009190034271 | -0.0009190034271 | 0.001838006854 |             0 | 0.005871771362 |             0 | -0.005871771362 |             0 |
!              0 |             0 |             0 |             0 |             0 |             0 |             0 |             0 |
!  -0.005871771362 |             0 | 0.005871771362 |             0 | 0.03751639865 |             0 |             0 | -0.03751639865 |
!  0.005871771362 | -0.005871771362 |             0 |             0 |             0 | 0.03751639865 |             0 | -0.03751639865 |
!              0 | 0.005871771362 | -0.005871771362 |             0 |             0 |             0 | 0.03751639865 | -0.03751639865 |
!              0 |             0 |             0 |             0 | -0.03751639865 | -0.03751639865 | -0.03751639865 |   0.112549196 |
! YPrim (B Matrix) = 
!  -0.03676013826 | 0.01838006854 | 0.01838006854 |             0 |  0.1174354272 | -0.1174354272 |             0 |             0 |
!  0.01838006854 | -0.03676013826 | 0.01838006854 |             0 |             0 |  0.1174354272 | -0.1174354272 |             0 |
!  0.01838006854 | 0.01838006854 | -0.03676013826 |             0 | -0.1174354272 |             0 |  0.1174354272 |             0 |
!              0 |             0 |             0 |             0 |             0 |             0 |             0 |             0 |
!   0.1174354272 |             0 | -0.1174354272 |             0 | -0.7503279972 |             0 |             0 |   0.750327973 |
!  -0.1174354272 |  0.1174354272 |             0 |             0 |             0 | -0.7503279972 |             0 |   0.750327973 |
!              0 | -0.1174354272 |  0.1174354272 |             0 |             0 |             0 | -0.7503279972 |   0.750327973 |
!              0 |             0 |             0 |             0 |   0.750327973 |   0.750327973 |   0.750327973 |  -2.250984016 |
~ NumWindings=2
~ phases=3
~ Wdg=1 bus=a
~ conn=delta
~ kv=46.00
~ kVA=7500.0
~ tap=1.000
~ %R=0.16
~ RdcOhms=0.3844202
~ rneut=-1.000
~ xneut=0.000
~ Wdg=2 bus=b
~ conn=wye
~ kv=12.47
~ kVA=7500.0
~ tap=1.000
~ %R=0.16
~ RdcOhms=0.009416774
~ rneut=-1.000
~ xneut=0.000
~ XHL=6.412
~ XHT=35.000
~ XLT=30.000
~ X12=6.412
~ X13=35.000
~ X23=30.000
~ Xscmatrix= "6.41 "
~ NormMAxHkVA=8250
~ EmergMAxHkVA=11250
~ thermal=2.0
~ n=0.8
~ m=0.8
~ flrise=65
~ hsrise=15
~ %loadloss=0
~ %noloadloss=0
~ normhkVA=8250
~ emerghkVA=11250
~ sub=yes
~ MaxTap=1.1
~ MinTap=0.9
~ NumTaps=32
~ subname=
~ %imag=0
~ ppm_antifloat=1
~ %Rs=[0.1602998, 0.1602998, ]
~ bank=
~ XfmrCode=
~ XRConst=NO
~ X12=6.41199
~ X13=35
~ X23=30
~ LeadLag=Lag
~ WdgCurrents=0.0001037721, (-109.11), 2.033692E-012, (-63.435), 0.0001037721, (130.89), 2.033692E-012, (-116.57), 0.0001037721, (10.893), 1.985455E-012, (-156.37), 
~ Core=shell
~ RdcOhms=0.009416774
~ Seasons=1
~ Ratings=[1100,]
~ normamps=103.55
~ emergamps=141.2
~ faultrate=0.007
~ pctperm=100
~ repair=36
~ basefreq=60
~ enabled=true
~ like=

ZB:
1.28239800311915E-009 
2.5647960062383E-008 

ZB: (inverted)
1944611.2517 
-38892225.0342 

Y_OneVolt
1944611.2517 
-1944611.2517 1944611.2517 
-38892225.0342 
38892225.0342 -38892225.0342 

Y_Terminal
0.0009 
-0.0009 0.0009 
-0.0059 0.0059 0.0375 
0.0059 -0.0059 -0.0375 0.0375 
-0.0184 
0.0184 -0.0184 
0.1174 -0.1174 -0.7503 
-0.1174 0.1174 0.7503 -0.7503 

TermRef= 1 3 5 8 2 1 6 8 3 2 7 8 
