
New Transformer.trabc
! ENABLED
! NPhases = 3
! Nconds = 4
! Nterms = 2
! Yorder = 8
! NodeRef = "1 2 3 0 4 5 6 0 "
! Terminal Status: [C C C C C C C C ]
! Terminal Bus Ref: [1 1 1 1 2 2 2 2 ]

! YPrim (G matrix)
!    0.312350072 |  -0.156175036 |  -0.156175036 |             0 | -0.09024000676 |             0 | 0.09024000676 |             0 |
!   -0.156175036 |   0.312350072 |  -0.156175036 |             0 | 0.09024000676 | -0.09024000676 |             0 |             0 |
!   -0.156175036 |  -0.156175036 |   0.312350072 |             0 |             0 | 0.09024000676 | -0.09024000676 |             0 |
!              0 |             0 |             0 |             0 |             0 |             0 |             0 |             0 |
!  -0.09024000676 | 0.09024000676 |             0 |             0 | 0.05214187254 |             0 |             0 | -0.05214187254 |
!              0 | -0.09024000676 | 0.09024000676 |             0 |             0 | 0.05214187254 |             0 | -0.05214187254 |
!  0.09024000676 |             0 | -0.09024000676 |             0 |             0 |             0 | 0.05214187254 | -0.05214187254 |
!              0 |             0 |             0 |             0 | -0.05214187254 | -0.05214187254 | -0.05214187254 |  0.1564256176 |
! YPrim (B Matrix) = 
!    -1.87410049 |  0.9370502159 |  0.9370502159 |             0 |  0.5414400406 |             0 | -0.5414400406 |             0 |
!   0.9370502159 |   -1.87410049 |  0.9370502159 |             0 | -0.5414400406 |  0.5414400406 |             0 |             0 |
!   0.9370502159 |  0.9370502159 |   -1.87410049 |             0 |             0 | -0.5414400406 |  0.5414400406 |             0 |
!              0 |             0 |             0 |             0 |             0 |             0 |             0 |             0 |
!   0.5414400406 | -0.5414400406 |             0 |             0 | -0.3128512449 |             0 |             0 |  0.3128512353 |
!              0 |  0.5414400406 | -0.5414400406 |             0 |             0 | -0.3128512449 |             0 |  0.3128512353 |
!  -0.5414400406 |             0 |  0.5414400406 |             0 |             0 |             0 | -0.3128512449 |  0.3128512353 |
!              0 |             0 |             0 |             0 |  0.3128512353 |  0.3128512353 |  0.3128512353 | -0.9385537444 |
~ NumWindings=2
~ phases=3
~ Wdg=1 bus=a
~ conn=delta
~ kv=4.16
~ kVA=3000.0
~ tap=1.000
~ %R=0.50
~ RdcOhms=0.02451627
~ rneut=-1.000
~ xneut=0.000
~ Wdg=2 bus=b
~ conn=wye
~ kv=12.47
~ kVA=3000.0
~ tap=1.000
~ %R=0.50
~ RdcOhms=0.07343098
~ rneut=-1.000
~ xneut=0.000
~ XHL=6.000
~ XHT=35.000
~ XLT=30.000
~ X12=6.000
~ X13=35.000
~ X23=30.000
~ Xscmatrix= "6.00 "
~ NormMAxHkVA=3300
~ EmergMAxHkVA=4500
~ thermal=2.0
~ n=0.8
~ m=0.8
~ flrise=65
~ hsrise=15
~ %loadloss=1
~ %noloadloss=0
~ normhkVA=3300
~ emerghkVA=4500
~ sub=n
~ MaxTap=1.1
~ MinTap=0.9
~ NumTaps=32
~ subname=
~ %imag=0
~ ppm_antifloat=1
~ %Rs=[0.5, 0.5, ]
~ bank=
~ XfmrCode=
~ XRConst=NO
~ X12=6
~ X13=35
~ X23=30
~ LeadLag=Lag
~ WdgCurrents=0.0001872687, (-70.893), 3.215549E-013, (45), 0.0001872687, (169.11), 4.582863E-013, (-7.125), 0.0001872687, (49.107), 3.410605E-013, (180), 
~ Core=shell
~ RdcOhms=0.07343098
~ Seasons=1
~ Ratings=[1100,]
~ normamps=457.99
~ emergamps=624.54
~ faultrate=0.007
~ pctperm=100
~ repair=36
~ basefreq=60
~ enabled=true
~ like=

ZB:
1E-008 
6E-008 

ZB: (inverted)
2702702.7027 
-16216216.2162 

Y_OneVolt
2702702.7027 
-2702702.7027 2702702.7027 
-16216216.2162 
16216216.2162 -16216216.2162 

Y_Terminal
0.1562 
-0.1562 0.1562 
-0.0902 0.0902 0.0521 
0.0902 -0.0902 -0.0521 0.0521 
-0.9371 
0.9371 -0.9371 
0.5414 -0.5414 -0.3129 
-0.5414 0.5414 0.3129 -0.3129 

TermRef= 1 2 5 8 2 3 6 8 3 1 7 8 
