
New Transformer.t1
! ENABLED
! NPhases = 3
! Nconds = 4
! Nterms = 2
! Yorder = 8
! NodeRef = "4 5 6 0 7 8 9 0 "
! Terminal Status: [C C C C C C C C ]
! Terminal Bus Ref: [2 2 2 2 3 3 3 3 ]

! YPrim (G matrix)
!  0.06952249672 | -0.03476124836 | -0.03476124836 |             0 | -0.1804800135 |  0.1804800135 |             0 |             0 |
!  -0.03476124836 | 0.06952249672 | -0.03476124836 |             0 |             0 | -0.1804800135 |  0.1804800135 |             0 |
!  -0.03476124836 | -0.03476124836 | 0.06952249672 |             0 |  0.1804800135 |             0 | -0.1804800135 |             0 |
!              0 |             0 |             0 |             0 |             0 |             0 |             0 |             0 |
!  -0.1804800135 |             0 |  0.1804800135 |             0 |  0.9370502159 |             0 |             0 | -0.9370502159 |
!   0.1804800135 | -0.1804800135 |             0 |             0 |             0 |  0.9370502159 |             0 | -0.9370502159 |
!              0 |  0.1804800135 | -0.1804800135 |             0 |             0 |             0 |  0.9370502159 | -0.9370502159 |
!              0 |             0 |             0 |             0 | -0.9370502159 | -0.9370502159 | -0.9370502159 |   2.811150648 |
! YPrim (B Matrix) = 
!  -0.4171349932 |  0.2085674902 |  0.2085674902 |             0 |   1.082880081 |  -1.082880081 |             0 |             0 |
!   0.2085674902 | -0.4171349932 |  0.2085674902 |             0 |             0 |   1.082880081 |  -1.082880081 |             0 |
!   0.2085674902 |  0.2085674902 | -0.4171349932 |             0 |  -1.082880081 |             0 |   1.082880081 |             0 |
!              0 |             0 |             0 |             0 |             0 |             0 |             0 |             0 |
!    1.082880081 |             0 |  -1.082880081 |             0 |  -5.622301469 |             0 |             0 |   5.622301295 |
!   -1.082880081 |   1.082880081 |             0 |             0 |             0 |  -5.622301469 |             0 |   5.622301295 |
!              0 |  -1.082880081 |   1.082880081 |             0 |             0 |             0 |  -5.622301469 |   5.622301295 |
!              0 |             0 |             0 |             0 |   5.622301295 |   5.622301295 |   5.622301295 |  -16.86690458 |
~ NumWindings=2
~ phases=3
~ Wdg=1 bus=n2
~ conn=delta
~ kv=12.47
~ kVA=6000.0
~ tap=1.000
~ %R=0.50
~ RdcOhms=0.1101465
~ rneut=-1.000
~ xneut=0.000
~ Wdg=2 bus=n3
~ conn=wye
~ kv=4.16
~ kVA=6000.0
~ tap=1.000
~ %R=0.50
~ RdcOhms=0.004086044
~ rneut=-1.000
~ xneut=0.000
~ XHL=6.000
~ XHT=35.000
~ XLT=30.000
~ X12=6.000
~ X13=35.000
~ X23=30.000
~ Xscmatrix= "6.00 "
~ NormMAxHkVA=6600
~ EmergMAxHkVA=9000
~ thermal=2.0
~ n=0.8
~ m=0.8
~ flrise=65
~ hsrise=15
~ %loadloss=1
~ %noloadloss=0
~ normhkVA=6600
~ emerghkVA=9000
~ sub=n
~ MaxTap=1.1
~ MinTap=0.9
~ NumTaps=32
~ subname=
~ %imag=0
~ ppm_antifloat=1
~ %Rs=[0.5, 0.5, ]
~ bank=
~ XfmrCode=
~ XRConst=NO
~ X12=6
~ X13=35
~ X23=30
~ LeadLag=Lag
~ WdgCurrents=63.6891, (-63.746), 330.6726, (116.25), 77.87695, (-178.98), 404.3358, (1.0153), 94.89173, (65.954), 492.6765, (-114.05), 
~ Core=shell
~ RdcOhms=0.004086044
~ Seasons=1
~ Ratings=[1100,]
~ normamps=305.57
~ emergamps=416.69
~ faultrate=0.007
~ pctperm=100
~ repair=36
~ basefreq=60
~ enabled=true
~ like=

ZB:
5E-009 
3E-008 

ZB: (inverted)
5405405.4054 
-32432432.4324 

Y_OneVolt
5405405.4054 
-5405405.4054 5405405.4054 
-32432432.4324 
32432432.4324 -32432432.4324 

Y_Terminal
0.0348 
-0.0348 0.0348 
-0.1805 0.1805 0.9371 
0.1805 -0.1805 -0.9371 0.9371 
-0.2086 
0.2086 -0.2086 
1.0829 -1.0829 -5.6223 
-1.0829 1.0829 5.6223 -5.6223 

TermRef= 1 3 5 8 2 1 6 8 3 2 7 8 
